Circuit: * C:\Users\agust\Documents\USB Drive\Agustin Omen 17\Documentos\2021\Ucc\Micro 2\ParcialEj3.asc

Instance "m§t4": Length shorter than recommended for a level 1 MOSFET.
Instance "m§t4": Width narrower than recommended for a level 1 MOSFET.
Instance "m§t3": Length shorter than recommended for a level 1 MOSFET.
Instance "m§t3": Width narrower than recommended for a level 1 MOSFET.
Instance "m§t2": Length shorter than recommended for a level 1 MOSFET.
Instance "m§t2": Width narrower than recommended for a level 1 MOSFET.
Instance "m§t1": Length shorter than recommended for a level 1 MOSFET.
Instance "m§t1": Width narrower than recommended for a level 1 MOSFET.
Instance "m§t12": Length shorter than recommended for a level 1 MOSFET.
Instance "m§t12": Width narrower than recommended for a level 1 MOSFET.
Instance "m§t122": Length shorter than recommended for a level 1 MOSFET.
Instance "m§t122": Width narrower than recommended for a level 1 MOSFET.
Direct Newton iteration for .op point succeeded.

Date: Mon Dec 18 22:16:30 2023
Total elapsed time: 0.128 seconds.

tnom = 27
temp = 27
method = modified trap
totiter = 1546
traniter = 1540
tranpoints = 768
accept = 726
rejected = 42
matrix size = 8
fillins = 0
solver = Normal
Avg thread counts: 5.8/10.1/10.2/5.8
Matrix Compiler1:      19 opcodes  0.1/[0.1]/0.1
Matrix Compiler2: off  [0.1]/0.1/0.1

