Circuit: * D:\NIEVAS\Documents\2021\Ucc\Micro 2\PARCIAL2_uEII-ampDiferencial.asc

Ignoring BSIM parameter XL
Ignoring BSIM parameter XW
Ignoring BSIM parameter XL
Ignoring BSIM parameter XW
Warning: Pd = 0 is less than W.
Warning: Ps = 0 is less than W.
Warning: Pd = 0 is less than W.
Warning: Ps = 0 is less than W.
Warning: Pd = 0 is less than W.
Warning: Ps = 0 is less than W.
Warning: Pd = 0 is less than W.
Warning: Ps = 0 is less than W.
Direct Newton iteration failed to find .op point.  (Use ".option noopiter" to skip.)
Starting Gmin stepping
Gmin = 10
Gmin = 1.07374
Gmin = 0.115292
Gmin = 0.0123794
Gmin = 0.00132923
Gmin = 0.000142725
Gmin = 1.5325e-005
Gmin = 1.6455e-006
Gmin = 1.76685e-007
Gmin = 1.89714e-008
Gmin = 2.03704e-009
Gmin = 2.18725e-010
Gmin = 2.34854e-011
Gmin = 2.52173e-012
Gmin = 2.70769e-013
Gmin = 0
Gmin stepping succeeded in finding the operating point.


Date: Wed Jun 02 20:56:14 2021
Total elapsed time: 8.715 seconds.

tnom = 27
temp = 27
method = modified trap
totiter = 400438
traniter = 400038
tranpoints = 200018
accept = 200018
rejected = 0
matrix size = 11
fillins = 0
solver = Normal
Matrix Compiler1: 530 bytes object code size  0.2/0.1/[0.1]
Matrix Compiler2: 823 bytes object code size  0.1/0.1/[0.1]

