Circuit: *---------------------------------

Direct Newton iteration for .op point succeeded.

Date: Wed May 05 19:08:48 2021
Total elapsed time: 0.159 seconds.

tnom = 27
temp = 70
method = modified trap
totiter = 2094
traniter = 2082
tranpoints = 1042
accept = 1042
rejected = 0
matrix size = 4
fillins = 0
solver = Normal
Matrix Compiler1: 118 bytes object code size  0.1/0.1/[0.1]
Matrix Compiler2: 282 bytes object code size  0.2/0.2/[0.1]

